[TITLE]
Sockford Vale Civic WDN – Base Model

[JUNCTIONS]
;ID         Elevation   Demand
J1          50          2.5
J2          50          2.5
J3          50          2.5
J4          45          3.0
J5          45          3.0
J6          45          3.0
J7          48          2.8
J8          48          2.8
J9          48          2.8
J10         60          1.2
J11         60          1.2
J12         60          1.2
J13         50          2.0
J14         50          2.0
J15         50          2.0

[RESERVOIRS]
;ID         Head
R1          70

[TANKS]
;ID         Elevation   InitLevel   MinLevel   MaxLevel   Diameter   MinVol
T1          55          60          55         65         10         0

[PIPES]
;ID         Node1   Node2   Length   Diameter   Roughness   MinorLoss   Status
P1          R1      T1      100      300        100         0           Open
P2          T1      J1      50       150        100         0           Open
P3          J1      J2      50       150        100         0           Open
P4          J2      J3      50       150        100         0           Open
P5          R1      J4      80       200        100         0           Open
P6          J4      J5      50       150        100         0           Open
P7          J5      J6      50       150        100         0           Open
P8          R1      J7      90       200        100         0           Open
P9          J7      J8      50       150        100         0           Open
P10         J8      J9      50       150        100         0           Open
P11         R1      J10     100      200        100         0           Open
P12         J10     J11     50       150        100         0           Open
P13         J11     J12     50       150        100         0           Open
P14         J9      J13     60       150        100         0           Open
P15         J13     J14     50       150        100         0           Open
P16         J14     J15     50       150        100         0           Open

[COORDINATES]
;ID         X        Y
J1          100      300
J2          150      300
J3          200      300
J4          100      250
J5          150      250
J6          200      250
J7          100      200
J8          150      200
J9          200      200
J10         100      150
J11         150      150
J12         200      150
J13         100      100
J14         150      100
J15         200      100
R1          50       350
T1          75       325

[END]
